24

H         -3.14882        1.44466       10.69610
H         -3.14882        1.44466       13.02110
H          0.87820        1.44466       10.69610
H          0.87820        1.44466       13.02110
C         -3.46043        0.36860       10.69610
C         -3.46043        0.36860       13.02110
C          0.56659        0.36860       10.69610
C          0.56659        0.36860       13.02110
C         -1.30540       -0.18587       11.92644
C         -1.30540       -0.18587       14.25144
C          2.72162       -0.18587       11.92645
C          2.72162       -0.18587       14.25145
C          0.00559        0.13036       11.92644
C          0.00559        0.13036       14.25144
C          4.03261        0.13036       11.92645
C          4.03261        0.13036       14.25145
C         -2.10138       -0.42405       10.69610
C         -2.10138       -0.42405       13.02110
C          1.92564       -0.42405       10.69611
C          1.92564       -0.42405       13.02111
H         -2.41308       -1.50009       10.69611
H         -2.41308       -1.50009       13.02111
H          1.61394       -1.50009       10.69611
H          1.61394       -1.50009       13.02111
