48
    structure completion; first 6 are the unit cell
H   2.31674 3.64243 14.11129
N   2.31819 3.64244 13.06287
B   3.76971 3.64244 12.54129
C   3.77127 3.64243 10.93456
C   5.22264 3.64243 10.46506
H   5.22378 3.64243 9.34175
H   4.49357 4.89923 14.11129
N   4.49502 4.89924 13.06287
B   5.94654 4.89924 12.54129
C   5.94810 4.89923 10.93456
C   7.39947 4.89923 10.46506
H   7.40061 4.89923 9.34175
H   0.13991 4.89923 14.11129
N   0.14136 4.89924 13.06287
B   1.59288 4.89924 12.54129
C   1.59444 4.89923 10.93456
C   3.04581 4.89923 10.46506
H   3.04695 4.89923 9.34175
H   6.67041 3.64243 14.11129
N   6.67186 3.64244 13.06287
B   8.12338 3.64244 12.54129
C   8.12494 3.64243 10.93456
C   9.57631 3.64243 10.46506
H   9.57745 3.64243 9.34175
H   2.31674 6.15602 14.11129
N   2.31819 6.15603 13.06287
B   3.76971 6.15603 12.54129
C   3.77127 6.15602 10.93456
C   5.22264 6.15602 10.46506
H   5.22378 6.15602 9.34175
H   0.13991 7.41282 14.11129
N   0.14136 7.41283 13.06287
B   1.59288 7.41283 12.54129
C   1.59444 7.41282 10.93456
C   3.04581 7.41282 10.46506
H   3.04695 7.41282 9.34175
H   4.49357 7.41282 14.11129
N   4.49502 7.41283 13.06287
B   5.94654 7.41283 12.54129
C   5.94810 7.41282 10.93456
C   7.39947 7.41282 10.46506
H   7.40061 7.41282 9.34175
H   6.67041 6.15602 14.11129
N   6.67186 6.15603 13.06287
B   8.12338 6.15603 12.54129
C   8.12494 6.15602 10.93456
C   9.57631 6.15602 10.46506
H   9.57745 6.15602 9.34175
